Version 4
SHEET 1 1076 680
WIRE 48 -1008 48 -1056
WIRE 48 -896 48 -928
WIRE 192 -896 48 -896
WIRE 416 -896 272 -896
WIRE 512 -896 416 -896
WIRE 48 -864 48 -896
WIRE 416 -864 416 -896
WIRE 48 -752 48 -784
WIRE 416 -752 416 -800
WIRE 48 -640 48 -672
WIRE 48 -496 48 -544
WIRE 48 -384 48 -416
WIRE 416 -384 48 -384
WIRE 512 -384 416 -384
WIRE 48 -352 48 -384
WIRE 416 -352 416 -384
WIRE 48 -240 48 -272
WIRE 416 -240 416 -288
WIRE 48 -128 48 -160
FLAG 48 -128 0
FLAG 416 -240 0
FLAG 48 -544 0
FLAG 512 -384 out1
FLAG 48 -640 0
FLAG 416 -752 0
FLAG 48 -1056 0
FLAG 512 -896 out2
SYMBOL voltage 48 -256 R0
WINDOW 123 0 0 Left 0
WINDOW 39 0 0 Left 0
SYMATTR InstName V2
SYMATTR Value AC 1
SYMBOL cap 400 -352 R0
SYMATTR InstName C1
SYMATTR Value 1.2n
SYMBOL res 32 -512 R0
SYMATTR InstName R5
SYMATTR Value 10k
SYMBOL res 32 -368 R0
SYMATTR InstName R6
SYMATTR Value 33k
SYMBOL voltage 48 -768 R0
WINDOW 123 0 0 Left 0
WINDOW 39 0 0 Left 0
SYMATTR InstName V3
SYMATTR Value AC 1
SYMBOL cap 400 -864 R0
SYMATTR InstName C2
SYMATTR Value 4.2n
SYMBOL res 32 -1024 R0
SYMATTR InstName R7
SYMATTR Value 10k
SYMBOL res 32 -880 R0
SYMATTR InstName R8
SYMATTR Value 33k
SYMBOL res 288 -912 R90
WINDOW 0 0 56 VBottom 2
WINDOW 3 32 56 VTop 2
SYMATTR InstName R9
SYMATTR Value 5k
TEXT 872 -112 Left 2 ;5k 4200p\n53 uS -> 9 uS GD\n16.5 dB
TEXT 14 -36 Left 2 !.ac dec 100 1 30k
