Version 4
SHEET 1 880 680
WIRE 112 112 64 112
WIRE 224 112 192 112
WIRE 336 112 304 112
WIRE 416 112 336 112
WIRE 64 144 64 112
WIRE 336 144 336 112
WIRE 64 240 64 224
WIRE 336 240 336 208
FLAG 336 240 0
FLAG 64 240 0
SYMBOL res 208 96 R90
WINDOW 0 0 56 VBottom 2
WINDOW 3 32 56 VTop 2
SYMATTR InstName R1
SYMATTR Value 30
SYMBOL ind 208 128 R270
WINDOW 0 32 56 VTop 2
WINDOW 3 5 56 VBottom 2
SYMATTR InstName L1
SYMATTR Value 2.2m
SYMBOL cap 320 144 R0
SYMATTR InstName C1
SYMATTR Value 10µ
SYMBOL voltage 64 128 R0
WINDOW 3 -404 91 Left 2
WINDOW 123 0 0 Left 0
WINDOW 39 0 0 Left 0
SYMATTR InstName V1
SYMATTR Value PULSE(0 5 0 10n 10n 10.4u 20u)
TEXT 30 264 Left 2 !.tran 2m
