Version 4
SHEET 1 880 680
WIRE 112 112 64 112
WIRE 224 112 192 112
WIRE 336 112 304 112
WIRE 400 112 336 112
WIRE 544 112 480 112
WIRE 592 112 544 112
WIRE 544 128 544 112
WIRE 64 144 64 112
WIRE 336 144 336 112
WIRE 544 224 544 192
WIRE 64 240 64 224
WIRE 336 240 336 208
FLAG 336 240 0
FLAG 64 240 0
FLAG 544 224 0
FLAG 592 112 PWM_OUT
SYMBOL res 208 96 R90
WINDOW 0 0 56 VBottom 2
WINDOW 3 32 56 VTop 2
SYMATTR InstName R1
SYMATTR Value 30
SYMBOL ind 208 128 R270
WINDOW 0 32 56 VTop 2
WINDOW 3 5 56 VBottom 2
SYMATTR InstName L1
SYMATTR Value 100µ
SYMATTR SpiceLine Rpar=0.728
SYMBOL cap 320 144 R0
SYMATTR InstName C1
SYMATTR Value 47µ
SYMATTR SpiceLine Rser=0.002
SYMBOL voltage 64 128 R0
WINDOW 3 -404 91 Left 2
WINDOW 123 0 0 Left 0
WINDOW 39 0 0 Left 0
SYMATTR Value PULSE(0 5 0 100n 100n 5.2u 10u)
SYMATTR InstName V1
SYMBOL ind 384 128 R270
WINDOW 0 32 56 VTop 2
WINDOW 3 5 56 VBottom 2
SYMATTR InstName L2
SYMATTR Value 100µ
SYMBOL cap 528 128 R0
SYMATTR InstName C3
SYMATTR Value 47µ
TEXT 32 264 Left 2 !.tran 25m
